Version 4
SHEET 1 1088 680
WIRE 352 -240 288 -240
WIRE 352 -208 352 -240
WIRE 288 -192 288 -240
WIRE 288 -96 288 -112
WIRE 688 -96 288 -96
WIRE 288 -80 288 -96
WIRE 400 -80 320 -80
WIRE 320 -48 320 -80
WIRE 400 -48 400 -80
WIRE 96 -32 -32 -32
WIRE 256 -32 176 -32
WIRE 688 -16 688 -96
WIRE 176 0 176 -32
WIRE 176 0 48 0
WIRE 576 0 384 0
WIRE 592 0 576 0
WIRE 656 0 608 0
WIRE 768 16 720 16
WIRE -32 32 -32 -32
WIRE 256 32 224 32
WIRE 592 32 592 0
WIRE 656 32 592 32
WIRE 768 32 768 16
WIRE 224 48 224 32
WIRE 352 64 352 32
WIRE 448 64 352 64
WIRE 688 64 688 48
WIRE 96 96 96 -32
WIRE 608 96 608 0
WIRE 640 96 608 96
WIRE 320 112 320 64
WIRE 352 112 320 112
WIRE 448 112 448 64
WIRE 448 112 432 112
WIRE 464 112 448 112
WIRE 576 112 576 0
WIRE 576 112 544 112
WIRE 608 112 608 96
WIRE -32 128 -32 112
WIRE -32 128 -192 128
WIRE 48 128 48 0
WIRE 48 128 -32 128
WIRE 320 128 320 112
WIRE 640 128 640 96
WIRE 768 128 768 112
WIRE 768 128 640 128
WIRE -192 144 -192 128
WIRE -32 144 -32 128
WIRE 320 224 320 208
WIRE -192 272 -192 224
WIRE -32 304 -32 224
WIRE 96 304 96 176
WIRE 96 304 -32 304
FLAG -192 272 0
FLAG 288 80 0
FLAG 320 304 0
FLAG 352 -208 0
FLAG 400 -48 0
FLAG 224 48 0
FLAG 688 64 0
FLAG 608 192 0
SYMBOL res -48 16 R0
SYMATTR InstName R1
SYMATTR Value 10k
SYMATTR SpiceLine tol=5
SYMBOL res -48 128 R0
SYMATTR InstName R2
SYMATTR Value 10k
SYMATTR SpiceLine tol=5
SYMBOL voltage 96 80 R0
WINDOW 123 0 0 Left 0
WINDOW 39 0 0 Left 0
SYMATTR InstName V1
SYMATTR Value 1.8
SYMBOL voltage -192 128 R0
WINDOW 3 -115 -16 Left 2
WINDOW 123 0 0 Left 0
WINDOW 39 -115 12 Left 2
SYMATTR InstName V2
SYMATTR Value SINE(0 .0001 10)
SYMBOL res 448 96 R90
WINDOW 0 0 56 VBottom 2
WINDOW 3 32 56 VTop 2
SYMATTR InstName R3
SYMATTR Value 100
SYMATTR SpiceLine tol=5
SYMBOL res 560 96 R90
WINDOW 0 0 56 VBottom 2
WINDOW 3 32 56 VTop 2
SYMATTR InstName R4
SYMATTR Value 45k
SYMATTR SpiceLine tol=5
SYMBOL voltage 320 208 R0
WINDOW 123 0 0 Left 0
WINDOW 39 0 0 Left 0
SYMATTR InstName V3
SYMATTR Value 0
SYMBOL res 304 112 R0
SYMATTR InstName R5
SYMATTR Value 45k
SYMATTR SpiceLine tol=5
SYMBOL voltage 288 -96 R180
WINDOW 0 24 96 Left 2
WINDOW 3 24 16 Left 2
WINDOW 123 0 0 Left 0
WINDOW 39 0 0 Left 0
SYMATTR InstName V4
SYMATTR Value 1.8v
SYMBOL OpAmps\\AD8237 320 0 R0
SYMATTR InstName U1
SYMBOL res 752 16 R0
SYMATTR InstName R6
SYMATTR Value 10k
SYMATTR SpiceLine tol=5
SYMBOL res 624 208 R180
WINDOW 0 36 76 Left 2
WINDOW 3 36 40 Left 2
SYMATTR InstName R7
SYMATTR Value 1k
SYMATTR SpiceLine tol=5
SYMBOL OpAmps\\AD8541 688 -48 R0
SYMATTR InstName U3
TEXT -308 266 Left 2 !.tran 1
