Version 4
SHEET 1 2096 1188
WIRE 784 48 752 48
WIRE 1376 48 1344 48
WIRE 784 64 784 48
WIRE 1376 64 1376 48
WIRE 752 96 752 48
WIRE 1344 96 1344 48
WIRE 400 112 336 112
WIRE 448 112 400 112
WIRE 720 112 528 112
WIRE 1312 112 1072 112
WIRE 928 128 784 128
WIRE 1072 128 1072 112
WIRE 1072 128 928 128
WIRE 1520 128 1376 128
WIRE 1616 128 1520 128
WIRE 400 144 400 112
WIRE 704 144 608 144
WIRE 720 144 704 144
WIRE 1296 144 1200 144
WIRE 1312 144 1296 144
WIRE 704 176 704 144
WIRE 832 176 704 176
WIRE 928 176 928 128
WIRE 928 176 912 176
WIRE 1296 176 1296 144
WIRE 1424 176 1296 176
WIRE 1520 176 1520 128
WIRE 1520 176 1504 176
WIRE 704 224 704 176
WIRE 784 224 704 224
WIRE 928 224 864 224
WIRE 1296 224 1296 176
WIRE 1376 224 1296 224
WIRE 1520 224 1456 224
WIRE 608 240 608 144
WIRE 1200 240 1200 144
WIRE 672 272 656 272
WIRE 752 272 752 160
WIRE 1264 272 1248 272
WIRE 1344 272 1344 160
WIRE 656 320 656 272
WIRE 784 320 704 320
WIRE 928 320 928 224
WIRE 928 320 864 320
WIRE 1248 320 1248 272
WIRE 1376 320 1296 320
WIRE 1520 320 1520 224
WIRE 1520 320 1456 320
WIRE 752 384 752 272
WIRE 1344 384 1344 272
WIRE 608 400 608 320
WIRE 704 400 704 320
WIRE 704 400 608 400
WIRE 720 400 704 400
WIRE 1200 400 1200 320
WIRE 1296 400 1296 320
WIRE 1296 400 1200 400
WIRE 1312 400 1296 400
WIRE 928 416 928 320
WIRE 928 416 784 416
WIRE 1520 416 1520 320
WIRE 1520 416 1376 416
WIRE 400 432 400 224
WIRE 720 432 400 432
WIRE 1312 432 1264 432
WIRE 704 464 704 400
WIRE 816 464 704 464
WIRE 1072 464 896 464
WIRE 1296 464 1296 400
WIRE 1408 464 1296 464
WIRE 1648 464 1488 464
WIRE 752 480 752 448
WIRE 1264 480 1264 432
WIRE 1344 480 1344 448
WIRE 400 496 400 432
WIRE 832 704 672 704
WIRE 672 720 672 704
WIRE 880 752 752 752
WIRE 1072 752 1072 464
WIRE 1072 752 880 752
WIRE 1648 752 1648 464
WIRE 1648 752 1072 752
WIRE 672 816 672 800
WIRE 832 864 832 704
WIRE 752 880 752 752
WIRE 800 880 752 880
WIRE 880 896 880 752
WIRE 880 896 864 896
WIRE 896 896 880 896
WIRE 1040 896 976 896
WIRE 672 912 672 896
WIRE 672 912 608 912
WIRE 800 912 672 912
WIRE 608 928 608 912
WIRE 672 928 672 912
WIRE 608 1024 608 992
WIRE 672 1024 672 1008
WIRE 672 1024 608 1024
WIRE 672 1040 672 1024
WIRE 672 1136 672 1120
WIRE 832 1136 832 928
WIRE 832 1136 672 1136
FLAG 336 112 Electrode
IOPIN 336 112 In
FLAG 656 320 0
FLAG 784 64 0
FLAG 752 480 0
FLAG 1248 320 0
FLAG 1376 64 0
FLAG 1344 480 0
FLAG 1616 128 OUT
IOPIN 1616 128 Out
FLAG 1264 480 0
FLAG 400 496 0
FLAG 1040 896 Earclip
IOPIN 1040 896 In
SYMBOL OpAmps\\UniversalOpAmp 752 128 M180
SYMATTR InstName U1
SYMBOL voltage 768 272 R90
WINDOW 0 -15 54 Left 2
WINDOW 3 -57 97 Left 2
WINDOW 123 0 0 Left 0
WINDOW 39 0 0 Left 0
SYMATTR InstName V1
SYMATTR Value 3V3
SYMBOL OpAmps\\UniversalOpAmp 752 416 R0
SYMATTR InstName U2
SYMBOL res 592 224 R0
WINDOW 0 -22 24 Left 2
WINDOW 3 -20 102 Left 2
SYMATTR InstName R3
SYMATTR Value 2k
SYMATTR SpiceLine tol=1
SYMBOL res 880 208 R90
WINDOW 0 0 56 VBottom 2
WINDOW 3 32 56 VTop 2
SYMATTR InstName R4
SYMATTR Value 10k
SYMATTR SpiceLine tol=1
SYMBOL res 880 304 R90
WINDOW 0 0 56 VBottom 2
WINDOW 3 32 56 VTop 2
SYMATTR InstName R5
SYMATTR Value 10k
SYMATTR SpiceLine tol=1
SYMBOL res 928 160 R90
WINDOW 0 0 56 VBottom 2
WINDOW 3 32 56 VTop 2
SYMATTR InstName R6
SYMATTR Value 40k
SYMATTR SpiceLine tol=1
SYMBOL res 912 448 R90
WINDOW 0 0 56 VBottom 2
WINDOW 3 32 56 VTop 2
SYMATTR InstName R7
SYMATTR Value 40k
SYMATTR SpiceLine tol=1
SYMBOL voltage 400 128 R0
WINDOW 3 -212 98 Left 2
WINDOW 123 0 0 Left 0
WINDOW 39 0 0 Left 0
SYMATTR Value SINE(0 0.0001 10)
SYMATTR InstName V2
SYMBOL OpAmps\\UniversalOpAmp 1344 128 M180
SYMATTR InstName U3
SYMBOL voltage 1360 272 R90
WINDOW 0 -14 55 Left 2
WINDOW 3 -57 97 Left 2
WINDOW 123 0 0 Left 0
WINDOW 39 0 0 Left 0
SYMATTR InstName V3
SYMATTR Value 3V3
SYMBOL OpAmps\\UniversalOpAmp 1344 416 R0
SYMATTR InstName U4
SYMBOL res 1184 224 R0
WINDOW 0 -22 24 Left 2
WINDOW 3 -44 106 Left 2
SYMATTR InstName R1
SYMATTR Value 120R
SYMATTR SpiceLine tol=1
SYMBOL res 1472 208 R90
WINDOW 0 0 56 VBottom 2
WINDOW 3 32 56 VTop 2
SYMATTR InstName R2
SYMATTR Value 10k
SYMATTR SpiceLine tol=1
SYMBOL res 1472 304 R90
WINDOW 0 0 56 VBottom 2
WINDOW 3 32 56 VTop 2
SYMATTR InstName R8
SYMATTR Value 10k
SYMATTR SpiceLine tol=1
SYMBOL res 1520 160 R90
WINDOW 0 0 56 VBottom 2
WINDOW 3 32 56 VTop 2
SYMATTR InstName R9
SYMATTR Value 40k
SYMATTR SpiceLine tol=1
SYMBOL res 1504 448 R90
WINDOW 0 0 56 VBottom 2
WINDOW 3 32 56 VTop 2
SYMATTR InstName R10
SYMATTR Value 40k
SYMATTR SpiceLine tol=1
SYMBOL res 544 96 R90
WINDOW 0 0 56 VBottom 2
WINDOW 3 32 56 VTop 2
SYMATTR InstName R11
SYMATTR Value 1m
SYMATTR SpiceLine tol=1
SYMBOL OpAmps\\UniversalOpAmp 832 896 M180
SYMATTR InstName U5
SYMBOL res 656 800 R0
SYMATTR InstName R12
SYMATTR Value 100k
SYMATTR SpiceLine tol=1
SYMBOL res 656 912 R0
SYMATTR InstName R13
SYMATTR Value 100k
SYMATTR SpiceLine tol=1
SYMBOL cap 592 928 R0
SYMATTR InstName C1
SYMATTR Value 10µF
SYMATTR SpiceLine V=50
SYMBOL voltage 672 1136 R180
WINDOW 0 24 96 Left 2
WINDOW 3 24 16 Left 2
WINDOW 123 0 0 Left 0
WINDOW 39 0 0 Left 0
SYMATTR InstName V4
SYMATTR Value 3V3
SYMBOL voltage 672 816 R180
WINDOW 0 24 96 Left 2
WINDOW 3 24 16 Left 2
WINDOW 123 0 0 Left 0
WINDOW 39 0 0 Left 0
SYMATTR InstName V5
SYMATTR Value 3V3
SYMBOL res 992 880 R90
WINDOW 0 0 56 VBottom 2
WINDOW 3 32 56 VTop 2
SYMATTR InstName R14
SYMATTR Value 10m
SYMATTR SpiceLine tol=1
TEXT 232 512 Left 2 !.tran 1
TEXT 560 0 Left 2 ;INA126P (1)
TEXT 1136 0 Left 2 ;INA126P (2)
TEXT 560 624 Left 2 ;Driven Right Leg [DRL]
RECTANGLE Normal 1008 560 560 16 2
RECTANGLE Normal 1584 560 1136 16 2
RECTANGLE Normal 1008 1184 560 640 2
